    72
 Generated by Multiwfn
O      -5.41640000     -1.22980000     -6.28230000
C       0.94940000      0.39420000      0.19330000
C       1.30810000      1.49420000      1.27270000
C      -0.61620000      0.40300000      0.33430000
C       0.18050000      2.56310000      1.23140000
C      -0.97720000      1.90750000      0.46280000
C       1.43980000     -1.08300000      0.46500000
C       2.75730000      2.07420000      1.50290000
C      -1.32090000     -0.48600000     -0.60690000
C       1.43230000      0.79850000     -1.24170000
C       0.46450000     -2.23200000      0.06330000
C      -0.72120000     -1.80960000     -0.84470000
C       3.82590000      1.00150000      1.88700000
C       3.31590000      3.04460000      0.41940000
C      -2.44320000     -0.08080000     -1.23940000
C       3.56490000      0.23340000      3.21370000
C       4.41070000     -1.04440000      3.42270000
C      -3.19510000     -0.74540000     -2.15780000
C       3.96070000     -1.94550000      4.61630000
C      -4.23930000     -0.27730000     -2.87530000
C      -4.85590000     -1.12580000     -3.90640000
C       5.02080000     -3.04510000      4.88520000
C       2.54840000     -2.58660000      4.46100000
C      -4.77200000      0.99500000     -2.79020000
C      -4.74490000     -0.44800000     -5.29880000
C      -4.75160000      1.78370000     -4.02900000
C      -5.31900000      0.99410000     -5.24260000
C      -5.29800000      1.48660000     -1.65390000
H       1.06230000      1.02000000      2.22510000
H      -0.88990000     -0.02930000      1.30740000
H      -0.14350000      2.85460000      2.23800000
H       0.46750000      3.48680000      0.72910000
H      -1.05270000      2.37000000     -0.52550000
H      -1.93160000      2.05580000      0.97630000
H       1.63130000     -1.22650000      1.52600000
H       2.40680000     -1.28060000     -0.00700000
H       2.67400000      2.71520000      2.38890000
H       1.17870000      1.82710000     -1.49850000
H       1.00920000      0.16390000     -2.02020000
H       2.51320000      0.69000000     -1.33850000
H       1.01140000     -3.05160000     -0.41320000
H       0.03350000     -2.65940000      0.97490000
H      -0.37690000     -1.84180000     -1.88240000
H      -1.48020000     -2.59080000     -0.73860000
H       4.80600000      1.47410000      2.00150000
H       3.92700000      0.30690000      1.05120000
H       4.23950000      3.51450000      0.76220000
H       2.63340000      3.86260000      0.19630000
H       3.55240000      2.53980000     -0.51330000
H      -2.77070000      0.82510000     -1.02340000
H       3.68900000      0.91330000      4.05970000
H       2.53770000     -0.09120000      3.25880000
H       5.44090000     -0.70790000      3.57060000
H       4.39770000     -1.64440000      2.50790000
H      -2.92040000     -1.68090000     -2.34010000
H       3.92620000     -1.31370000      5.50980000
H      -5.90600000     -1.29270000     -3.64820000
H      -4.41230000     -2.12320000     -3.98740000
H       6.00380000     -2.60320000      5.06090000
H       4.76280000     -3.62660000      5.77230000
H       5.09740000     -3.72660000      4.03490000
H       2.31910000     -3.23970000      5.30510000
H       2.48170000     -3.17690000      3.54500000
H       1.75220000     -1.84170000      4.44120000
H      -3.69020000     -0.40160000     -5.59050000
H      -3.71170000      2.05290000     -4.23710000
H      -5.29770000      2.72900000     -3.95080000
H      -5.08680000      1.52230000     -6.17080000
H      -6.40800000      0.94370000     -5.15480000
H      -5.32690000      0.95380000     -0.81580000
H      -5.67570000      2.40350000     -1.60660000
H      -4.98180000     -2.10860000     -6.24210000
